data_MgMOF-74_DDEC
_chemical_name_common                  'MgMOF-74_DDEC'
_cell_length_a                          26.135980
_cell_length_b                          26.136064
_cell_length_c                           6.942010
_cell_angle_alpha                       90.00
_cell_angle_beta                        90.00
_cell_angle_gamma                      120.00
_space_group_name_H-M_alt              'P 1'
_space_group_IT_number                 1

loop_
_symmetry_equiv_pos_as_xyz
   'x, y, z'

loop_
   _atom_site_label
   _atom_site_type_symbol
   _atom_site_fract_x
   _atom_site_fract_y
   _atom_site_fract_z
   _atom_site_charge
Mg     Mg      0.641589106     0.685137657     0.471889410     1.544554981
O      O       0.969430211     0.297758998     0.360379487    -0.811919019
O      O       0.927630257     0.230479197     0.610199207    -0.656939019
O      O       0.254938193     0.942046750     0.673829050    -0.840569019
C      C       0.926670282     0.245799160     0.427029347     0.638725981
C      C       0.879180269     0.207109274     0.290829601    -0.148049019
C      C       0.212538263     0.889256940     0.754898941     0.322571981
C      C       0.166298301     0.847587048     0.635579177    -0.194182019
H      H       0.165288299     0.858027031     0.479179373     0.145506981
Mg     Mg      0.314858212     0.956446702     0.471889410     1.544513981
O      O       0.702239166     0.671667700     0.360379487    -0.811793019
O      O       0.769519134     0.697147587     0.610199207    -0.657002019
O      O       0.057949385     0.312888897     0.673829050    -0.840394019
C      C       0.754199169     0.680867631     0.427029347     0.638705981
C      C       0.792889210     0.672067665     0.290829601    -0.148054019
C      C       0.110739410     0.323278868     0.754898941     0.322286981
C      C       0.152409427     0.318708901     0.635579177    -0.194014019
H      H       0.141969460     0.307258957     0.479179373     0.145508981
Mg     Mg      0.043549274     0.358408749     0.471889410     1.544642981
O      O       0.328330223     0.030569899     0.360379487    -0.811807019
O      O       0.302850088     0.072369726     0.610199207    -0.656895019
O      O       0.687108954     0.745057417     0.673829050    -0.840310019
C      C       0.319130105     0.073329719     0.427029347     0.638598981
C      C       0.327930001     0.120819571     0.290829601    -0.147920019
C      C       0.676718858     0.787457256     0.754898941     0.322501981
C      C       0.681288765     0.833697114     0.635579177    -0.193993019
H      H       0.692738795     0.834707120     0.479179373     0.145471981
Mg     Mg      0.358409630     0.314858897     0.528109294     1.544585981
O      O       0.030568487     0.702237556     0.639619073    -0.811623019
O      O       0.072368380     0.769517312     0.389799496    -0.656887019
O      O       0.745060505     0.057949804     0.326169510    -0.840434019
C      C       0.073328416     0.754197394     0.572969212     0.638467981
C      C       0.120818429     0.792887280     0.709169102    -0.147913019
C      C       0.787460434     0.110739614     0.245099618     0.322482981
C      C       0.833700375     0.152409461     0.364419527    -0.194057019
H      H       0.834710399     0.141969523     0.520819330     0.145490981
Mg     Mg      0.685140486     0.043549852     0.528109294     1.544480981
O      O       0.297759532     0.328328853     0.639619073    -0.811837019
O      O       0.230479564     0.302848967     0.389799496    -0.656835019
O      O       0.942049329     0.687107613     0.326169510    -0.840346019
C      C       0.245799507     0.319128879     0.572969212     0.638660981
C      C       0.207109488     0.327928889     0.709169102    -0.147992019
C      C       0.889259265     0.676717642     0.245099618     0.322229981
C      C       0.847589271     0.681287653     0.364419527    -0.194050019
H      H       0.858029238     0.692737597     0.520819330     0.145493981
Mg     Mg      0.956449440     0.641587761     0.528109294     1.544673981
O      O       0.671668475     0.969426655     0.639619073    -0.812041019
O      O       0.697148588     0.927626784     0.389799496    -0.656970019
O      O       0.312889722     0.254939093     0.326169510    -0.840366019
C      C       0.680868571     0.926666790     0.572969212     0.638896981
C      C       0.672068697     0.879176983     0.709169102    -0.148195019
C      C       0.323279818     0.212539254     0.245099618     0.322490981
C      C       0.318709932     0.166299440     0.364419527    -0.194118019
H      H       0.307259903     0.165289434     0.520819330     0.145515981
Mg     Mg      0.308260217     0.018469930     0.805218950     1.544538981
O      O       0.636099178     0.631087825     0.693709027    -0.811906019
O      O       0.594299284     0.563808068     0.943528747    -0.656775019
O      O       0.921610145     0.275379023     0.007160030    -0.840332019
C      C       0.593339249     0.579127987     0.760359031     0.638639981
C      C       0.545849296     0.540438145     0.624159141    -0.148104019
C      C       0.879210254     0.222589213     0.088229922     0.322424981
C      C       0.832970314     0.180919366     0.968908717    -0.194243019
H      H       0.831960273     0.191359348     0.812508913     0.145591981
Mg     Mg      0.981530225     0.289779019     0.805218950     1.544760981
O      O       0.368910315     0.004999973     0.693709027    -0.811890019
O      O       0.436190305     0.030479904     0.943528747    -0.656947019
O      O       0.724619216     0.646217768     0.007160030    -0.840348019
C      C       0.420870339     0.014199948     0.760359031     0.638793981
C      C       0.459560380     0.005399982     0.624159141    -0.148113019
C      C       0.777409241     0.656607739     0.088229922     0.322469981
C      C       0.819079274     0.652037728     0.968908717    -0.194140019
H      H       0.808639307     0.640587784     0.812508913     0.145496981
Mg     Mg      0.710219142     0.691737620     0.805218950     1.544539981
O      O       0.995000092     0.363898771     0.693709027    -0.811818019
O      O       0.969519957     0.405698597     0.943528747    -0.656946019
O      O       0.353780125     0.078389734     0.007160030    -0.840516019
C      C       0.985799935     0.406658591     0.760359031     0.638676981
C      C       0.994599870     0.454148442     0.624159141    -0.147911019
C      C       0.343390029     0.120789573     0.088229922     0.322664981
C      C       0.347959936     0.167029431     0.968908717    -0.194205019
H      H       0.359409966     0.168039437     0.812508913     0.145509981
Mg     Mg      0.025078618     0.648187768     0.861438834     1.544615981
O      O       0.697240499     0.035569873     0.972948613    -0.811936019
O      O       0.739040393     0.102849630     0.723129036    -0.656888019
O      O       0.411729510     0.391278631     0.659499050    -0.840435019
C      C       0.740000466     0.087529711     0.906298752     0.638621981
C      C       0.787490381     0.126219553     0.042499939    -0.147961019
C      C       0.454129439     0.444068441     0.578429302     0.322573981
C      C       0.500369402     0.485738332     0.697749067    -0.193931019
H      H       0.501379404     0.475298350     0.854148870     0.145398981
Mg     Mg      0.351809491     0.376878679     0.861438834     1.544550981
O      O       0.964429401     0.661657725     0.972948613    -0.811783019
O      O       0.897149372     0.636177794     0.723129036    -0.656619019
O      O       0.608720461     0.020439930     0.659499050    -0.840350019
C      C       0.912469376     0.652457750     0.906298752     0.638337981
C      C       0.873779335     0.661257716     0.042499939    -0.147686019
C      C       0.555930436     0.010049959     0.578429302     0.322504981
C      C       0.514260403     0.014619970     0.697749067    -0.194095019
H      H       0.524700370     0.026069914     0.854148870     0.145502981
Mg     Mg      0.623118429     0.974916632     0.861438834     1.544581981
O      O       0.338339646     0.302758972     0.972948613    -0.811946019
O      O       0.363819758     0.260959101     0.723129036    -0.656822019
O      O       0.979559552     0.588267964     0.659499050    -0.840523019
C      C       0.347539742     0.259999108     0.906298752     0.638721981
C      C       0.338739846     0.212509256     0.042499939    -0.147964019
C      C       0.989949648     0.545868125     0.578429302     0.322502981
C      C       0.985379741     0.499628267     0.697749067    -0.194167019
H      H       0.973929749     0.498618261     0.854148870     0.145498981
Mg     Mg      0.974920079     0.351808786     0.138559725     1.544581981
O      O       0.302758199     0.964426681     0.027049947    -0.812085019
O      O       0.260958305     0.897146924     0.276869667    -0.656916019
O      O       0.588269166     0.608717879     0.340499510    -0.840536019
C      C       0.259998231     0.912466843     0.093699807     0.638932981
C      C       0.212508294     0.873776957     0.957498621    -0.148208019
C      C       0.545869237     0.555928069     0.421569401     0.322600981
C      C       0.499629296     0.514258222     0.302249637    -0.194031019
H      H       0.498619294     0.524698204     0.145849833     0.145396981
Mg     Mg      0.648189185     0.623117831     0.138559725     1.544592981
O      O       0.035569297     0.338338829     0.027049947    -0.811812019
O      O       0.102849326     0.363818760     0.276869667    -0.656919019
O      O       0.391278237     0.979556624     0.340499510    -0.840314019
C      C       0.087529322     0.347538804     0.093699807     0.638592981
C      C       0.126219401     0.338738838     0.957498621    -0.147790019
C      C       0.444068239     0.989946551     0.421569401     0.322535981
C      C       0.485738294     0.985376584     0.302249637    -0.194016019
H      H       0.475298328     0.973926639     0.145849833     0.145514981
Mg     Mg      0.376880269     0.025079922     0.138559725     1.544543981
O      O       0.661659052     0.697237582     0.027049947    -0.811667019
O      O       0.636178940     0.739037453     0.276869667    -0.656858019
O      O       0.020439145     0.411728590     0.340499510    -0.840263019
C      C       0.652458956     0.739997446     0.093699807     0.638487981
C      C       0.661258830     0.787487254     0.957498621    -0.147884019
C      C       0.010049050     0.454128429     0.421569401     0.322387981
C      C       0.014618897     0.500368243     0.302249637    -0.194216019
H      H       0.026068926     0.501378249     0.145849833     0.145587981
Mg     Mg      0.691738459     0.981526580     0.194779754     1.544674981
O      O       0.363899520     0.368908729     0.306289533    -0.811795019
O      O       0.405699414     0.436188486     0.056469956    -0.656893019
O      O       0.078388531     0.724617487     0.992838674    -0.840225019
C      C       0.406659427     0.420868523     0.239639672     0.638624981
C      C       0.454149402     0.459558409     0.375839418    -0.148016019
C      C       0.120788444     0.777407341     0.911768782     0.322492981
C      C       0.167028384     0.819077188     0.031089987    -0.194186019
H      H       0.168038425     0.808637205     0.187489790     0.145579981
Mg     Mg      0.018468473     0.710217535     0.194779754     1.544508981
O      O       0.631088361     0.994996536     0.306289533    -0.811871019
O      O       0.563808393     0.969516650     0.056469956    -0.656843019
O      O       0.275379482     0.353778786     0.992838674    -0.840381019
C      C       0.579128397     0.985796606     0.239639672     0.638760981
C      C       0.540438317     0.994596572     0.375839418    -0.148178019
C      C       0.222589457     0.343388815     0.911768782     0.322449981
C      C       0.180919402     0.347958782     0.031089987    -0.194090019
H      H       0.191359369     0.359408726     0.187489790     0.145435981
Mg     Mg      0.289779594     0.308258934     0.194779754     1.544524981
O      O       0.004998606     0.636097783     0.306289533    -0.811955019
O      O       0.030478741     0.594297957     0.056469956    -0.656906019
O      O       0.646218573     0.921606820     0.992838674    -0.840622019
C      C       0.014198762     0.593337963     0.239639672     0.638765981
C      C       0.005398828     0.545848112     0.375839418    -0.147924019
C      C       0.656608647     0.879206937     0.911768782     0.322657981
C      C       0.652038762     0.832967123     0.031089987    -0.194049019
H      H       0.640588732     0.831957117     0.187489790     0.145431981
